LTspice 24.1.9 for Windows
Circuit: C:\Users\jevaa\OneDrive\Desktop\CAPSTONE 770\GITHUB\capstone-project-compsys-team-6-1\LTSPICE\CourseExample.net
Start Time: Thu Mar 12 13:36:42 2026
solver = Normal
Maximum thread count: 8
tnom = 27
temp = 27
method = trap
Direct Newton iteration for .op point succeeded.
Total elapsed time: 0.099 seconds.

Files loaded:
C:\Users\jevaa\OneDrive\Desktop\CAPSTONE 770\GITHUB\capstone-project-compsys-team-6-1\LTSPICE\CourseExample.net
C:\Users\jevaa\AppData\Local\LTspice\lib\sub\UniversalOpAmp1.lib

